Version 4
SHEET 1 1300 420
WIRE 144 112 64 112
WIRE 240 112 208 112
WIRE 352 112 320 112
WIRE 416 112 352 112
WIRE 608 112 512 112
WIRE 704 112 608 112
WIRE 800 112 704 112
WIRE 896 112 800 112
WIRE 704 128 704 112
WIRE 800 128 800 112
WIRE 896 128 896 112
WIRE 352 144 352 112
WIRE 416 144 416 112
WIRE 512 144 512 112
WIRE 608 160 608 112
WIRE 64 208 64 192
WIRE 704 224 704 208
WIRE 800 224 800 208
WIRE 896 224 896 208
WIRE 352 256 352 208
WIRE 416 256 416 224
WIRE 512 256 512 224
WIRE 608 256 608 224
WIRE 800 304 800 288
WIRE 896 304 896 288
WIRE 704 320 704 304
WIRE 704 400 704 384
FLAG 64 208 0
FLAG 416 256 0
FLAG 512 256 0
FLAG 608 256 0
FLAG 704 400 0
FLAG 352 256 0
FLAG 800 304 0
FLAG 896 304 0
SYMBOL Misc\\signal 64 96 R0
WINDOW 123 60 -46 Left 2
WINDOW 39 0 0 Left 0
WINDOW 3 -131 -70 Left 2
SYMATTR Value2 AC 140
SYMATTR Value PULSE(-280 280 0 1.5u 1.5u 26.31578947368421u 52.63157894736842u)
SYMATTR InstName V1
SYMBOL ind2 400 128 R0
SYMATTR InstName L2
SYMATTR Value 0.002
SYMATTR Type ind
SYMBOL ind2 496 128 R0
SYMATTR InstName L3
SYMATTR Value 0.008
SYMATTR Type ind
SYMBOL ind 688 208 R0
WINDOW 3 33 97 Left 2
SYMATTR Value 0.17780740734691616
SYMATTR InstName L4
SYMBOL cap 688 320 R0
SYMATTR InstName C4
SYMATTR Value 3.081864171991046e-10
SYMBOL res 688 112 R0
WINDOW 3 -9 -4 VRight 2
WINDOW 0 38 25 Left 2
SYMATTR Value 60
SYMATTR InstName R2
SYMBOL ind 224 128 R270
WINDOW 0 32 56 VTop 2
WINDOW 3 5 56 VBottom 2
SYMATTR InstName L1
SYMATTR Value 1000e-6
SYMBOL cap 336 144 R0
SYMATTR InstName C1
SYMATTR Value 30n
SYMBOL cap 208 96 R90
WINDOW 0 0 32 VBottom 2
WINDOW 3 32 32 VTop 2
SYMATTR InstName C2
SYMATTR Value 66n
SYMBOL res 784 112 R0
WINDOW 3 -7 105 VLeft 2
SYMATTR Value 10k
SYMATTR InstName R1
SYMBOL cap 784 224 R0
WINDOW 3 -6 12 VRight 2
SYMATTR Value 1.5n
SYMATTR InstName C5
SYMBOL res 880 112 R0
SYMATTR InstName R3
SYMATTR Value 2.2k
SYMBOL cap 880 224 R0
SYMATTR InstName C6
SYMATTR Value 1.5n
SYMBOL cap 592 160 R0
SYMATTR InstName C3
SYMATTR Value 15.4n
TEXT 96 168 Left 2 !.ac dec 100000 1e3 1e5
TEXT 400 88 Left 2 !K1 L2 L3 0.99
